[General]
sim-time-limit = 200s
**.vector-recording = false
**.visualize = true
**.agingTime = 1s
**.connectionColoring = false
network = CustomNetwork

[Config MSTP]
**.hasStp = true
**.spanningTreeProtocol = "Mstp"
